#N M062X/def2svp OPT FREQ=NoRaman temperature=273.15 Integral(Grid=UltraFine)

My cool molecule

0 1
C
C 1 B1
C 2 B2 1 A1
C 3 B3 2 A2 1 D1 0
C 4 B4 3 A3 2 D2 0
C 1 B5 2 A4 3 D3 0
H 3 B6 2 A5 1 D4 0
H 2 B7 1 A6 6 D5 0
H 1 B8 6 A7 5 D6 0
H 1 B9 6 A8 5 D7 0
H 4 B10 3 A9 2 D8 0
H 4 B11 3 A10 2 D9 0
H 5 B12 4 A11 3 D10 0
H 5 B13 4 A12 3 D11 0
H 6 B14 1 A13 2 D12 0
H 6 B15 1 A14 2 D13 0
H 3 B16 2 A15 1 D14 0
C 2 B17 1 A16 6 D15 0
H 18 B18 2 A17 1 D16 0
H 18 B19 2 A18 1 D17 0
H 18 B20 2 A19 1 D18 0

   B1             1.51510600
   B2             1.51517951
   B3             1.51543497
   B4             1.51512522
   B5             1.51498514
   B6             1.12087116
   B7             1.12176819
   B8             1.12177478
   B9             1.12093060
   B10            1.12176062
   B11            1.12091101
   B12            1.12095758
   B13            1.12181557
   B14            1.12176019
   B15            1.12097986
   B16            1.12168148
   B17            1.54000000
   B18            1.07000000
   B19            1.07000000
   B20            1.07000000
   A1           111.36252447
   A2           111.24127560
   A3           111.26574203
   A4           111.30936835
   A5           109.59001104
   A6           109.39681635
   A7           109.40740597
   A8           109.57492433
   A9           109.41106707
   A10          109.58676541
   A11          109.55885178
   A12          109.38713435
   A13          109.41082787
   A14          109.56859847
   A15          109.42519797
   A16          109.55953690
   A17          109.47120255
   A18          109.47120255
   A19          109.47123134
   D1            55.25714299
   D2           -55.23663791
   D3           -55.19282652
   D4           176.59526965
   D5            65.84971766
   D6           -65.94975705
   D7           176.44368868
   D8            65.79362957
   D9          -176.57422515
   D10          176.61579480
   D11          -65.80639557
   D12          -65.96332262
   D13          176.42532586
   D14          -65.75731388
   D15         -176.56184324
   D16         -178.76723016
   D17          -58.76721537
   D18           61.23277724

